Circuit: * C:\Users\Shrey\OneDrive\Desktop\Draft1.asc

Direct Newton iteration for .op point succeeded.

Date: Sun Nov  5 18:31:24 2023
Total elapsed time: 0.034 seconds.

tnom = 27
temp = 27
method = trap
totiter = 3
traniter = 0
tranpoints = 0
accept = 0
rejected = 0
matrix size = 8
fillins = 1
solver = Normal
Avg thread counts: 12.0/0.0/12.0/12.0
Matrix Compiler1: 264 bytes object code size
Matrix Compiler2: 480 bytes object code size
